@<TRIPOS>MOLECULE
*****
 24 23 0 0 0
SMALL
GASTEIGER

@<TRIPOS>ATOM
      1 N           1.0833   -0.0138   -0.0772 N.3     1  UNL1       -0.3215
      2 H1          0.7404   -0.0741    0.8813 H       1  UNL1        0.1188
      3 CA          0.5895    1.2175   -0.7153 C.3     1  UNL1        0.0610
      4 HA          0.9902    2.0809   -0.1712 H       1  UNL1        0.0534
      5 C           1.1355    1.2632   -2.1463 C.2     1  UNL1        0.1369
      6 O           0.4586    1.2816   -3.1706 O.2     1  UNL1       -0.2994
      7 C          -0.9449    1.2557   -0.6869 C.3     1  UNL1       -0.0297
      8 H          -1.3485    0.3981   -1.2412 H       1  UNL1        0.0285
      9 H          -1.2979    1.1561    0.3490 H       1  UNL1        0.0285
     10 C          -1.4985    2.5643   -1.2762 C.3     1  UNL1       -0.0355
     11 H          -1.1177    3.4167   -0.7016 H       1  UNL1        0.0281
     12 H          -1.1500    2.7106   -2.3024 H       1  UNL1        0.0281
     13 C          -3.0197    2.5773   -1.3027 C.3     1  UNL1        0.0131
     14 H          -3.3978    1.7312   -1.8893 H       1  UNL1        0.0462
     15 H          -3.4196    2.4866   -0.2874 H       1  UNL1        0.0462
     16 N          -3.5482    3.7998   -1.8804 N.am    1  UNL1       -0.2996
     17 H          -2.9221    4.4696   -2.3010 H       1  UNL1        0.1502
     18 C          -4.8914    3.9750   -2.0058 C.2     1  UNL1        0.2971
     19 O          -5.7384    3.1758   -1.6234 O.2     1  UNL1       -0.2531
     20 N          -5.2511    5.1446   -2.5785 N.am    1  UNL1       -0.3134
     21 H          -4.6088    5.8308   -2.9370 H       1  UNL1        0.1465
     22 H          -6.2443    5.3072   -2.6790 H       1  UNL1        0.1465
     23 H2          2.1009   -0.0063   -0.0172 H       1  UNL1        0.1188
     24 H           2.2334    1.3176   -2.2217 H       1  UNL1        0.1043
@<TRIPOS>BOND
     1     1     2    1
     2     1     3    1
     3     3     4    1
     4     3     5    1
     5     5     6    2
     6     3     7    1
     7     7     8    1
     8     7     9    1
     9     7    10    1
    10    10    11    1
    11    10    12    1
    12    10    13    1
    13    13    14    1
    14    13    15    1
    15    13    16    1
    16    16    17    1
    17    16    18   am
    18    18    19    2
    19    18    20   am
    20    20    21    1
    21    20    22    1
    22     1    23    1
    23     5    24    1
