@<TRIPOS>MOLECULE

25 24 1
SMALL
USER_CHARGES
@<TRIPOS>ATOM
1	N1    13.7070     6.2429     0.0000	N.3	1	noname	-0.3194
2	C1    13.7070     4.7029     0.0000	C.3	1	noname	0.0913
3	C2    12.3733     3.9329     0.0000	C.3	1	noname	-0.0271
4	C3    11.0396     4.7029     0.0000	C.3	1	noname	-0.0381
5	C4     9.7060     3.9329     0.0000	C.3	1	noname	0.0040
6	N2     8.3723     4.7029     0.0000	N.3	1	noname	-0.2275
7	C5     7.0386     3.9329     0.0000	C.2	1	noname	0.2054
8	N3     5.7049     4.7029     0.0000	N.3	1	noname	-0.2361
9	H1     5.7049     6.2429     0.0000	H	1	noname	0.1285
10	H2     4.3713     3.9329     0.0000	H	1	noname	0.1285
11	O1     7.0386     2.3929     0.0000	O.2	1	noname	-0.2387
12	H3     7.5603     6.0114     0.0000	H	1	noname	0.1323
13	H4     9.0148     2.5567     0.0000	H	1	noname	0.0433
14	H5    10.3971     2.5567     0.0000	H	1	noname	0.0433
15	H6    10.7722     6.2195     0.0000	H	1	noname	0.0280
16	H7     9.8599     5.6927     0.0000	H	1	noname	0.0280
17	H8    11.6822     2.5567     0.0000	H	1	noname	0.0288
18	H9    13.0645     2.5567     0.0000	H	1	noname	0.0288
19	C6    15.0407     3.9329     0.0000	C.2	1	noname	0.1437
20	O2    16.3744     4.7029     0.0000	O.2	1	noname	-0.2496
21	H10    12.3733     5.4729     0.0000	H	1	noname	0.0571
22	H11    15.0407     7.0129     0.0000	H	1	noname	0.1191
23	H12    12.3733     7.0129     0.0000	H	1	noname	0.1191
24	O3    15.0407     2.3929     0.0000	O.3	1	noname	-0.2140
25	H13    13.7070     1.6229     0.0000	H	1	noname	0.2213
@<TRIPOS>BOND
1	1	2	1
2	2	3	1
3	3	4	1
4	4	5	1
5	5	6	1
6	6	7	1
7	7	8	1
8	8	9	1
9	8	10	1
10	7	11	2
11	6	12	1
12	5	13	1
13	5	14	1
14	4	15	1
15	4	16	1
16	3	17	1
17	3	18	1
18	2	19	1
19	19	20	2
20	2	21	1
21	1	22	1
22	1	23	1
23	24	25	1
24	19	24	1
@<TRIPOS>SUBSTRUCTURE
1	noname	1
