@<TRIPOS>MOLECULE
*****
   24    23     1     0     0
SMALL
gas


@<TRIPOS>ATOM
      1 N            1.0830    -0.0140    -0.0770 NT         1 UNL      -0.321750
      2 H1           0.7400    -0.0740     0.8810 H          1 UNL       0.119072
      3 CA           0.5900     1.2180    -0.7150 CT         1 UNL       0.060541
      4 HA           0.9900     2.0810    -0.1710 H1         1 UNL       0.054208
      5 C            1.1350     1.2630    -2.1460 C          1 UNL       0.136171
      6 O            0.4590     1.2820    -3.1710 O          1 UNL      -0.301661
      7 C1          -0.9450     1.2560    -0.6870 CT         1 UNL      -0.029643
      8 H           -1.3490     0.3980    -1.2410 HC         1 UNL       0.028752
      9 H3          -1.2980     1.1560     0.3490 HC         1 UNL       0.028752
     10 C2          -1.4980     2.5640    -1.2760 CT         1 UNL      -0.035625
     11 H4          -1.1180     3.4170    -0.7020 HC         1 UNL       0.028328
     12 H5          -1.1500     2.7110    -2.3020 HC         1 UNL       0.028328
     13 C3          -3.0200     2.5770    -1.3030 CT         1 UNL       0.012554
     14 H6          -3.3980     1.7310    -1.8890 H1         1 UNL       0.046733
     15 H7          -3.4200     2.4870    -0.2870 H1         1 UNL       0.046733
     16 N1          -3.5480     3.8000    -1.8800 N          1 UNL      -0.299522
     17 H8          -2.9220     4.4700    -2.3010 H          1 UNL       0.150986
     18 C4          -4.8910     3.9750    -2.0060 C          1 UNL       0.295239
     19 O1          -5.7380     3.1760    -1.6230 O          1 UNL      -0.254603
     20 N2          -5.2510     5.1450    -2.5790 N          1 UNL      -0.312997
     21 H9          -4.6090     5.8310    -2.9370 H          1 UNL       0.147151
     22 H10         -6.2440     5.3070    -2.6790 H          1 UNL       0.147151
     23 H2           2.1010    -0.0060    -0.0170 H          1 UNL       0.119072
     24 H11          2.2330     1.3180    -2.2220 HA         1 UNL       0.106031
@<TRIPOS>BOND
     1     1     2 1   
     2     1     3 1   
     3     3     4 1   
     4     3     5 1   
     5     5     6 2   
     6     3     7 1   
     7     7     8 1   
     8     7     9 1   
     9     7    10 1   
    10    10    11 1   
    11    10    12 1   
    12    10    13 1   
    13    13    14 1   
    14    13    15 1   
    15    13    16 1   
    16    16    17 1   
    17    16    18 1   
    18    18    19 2   
    19    18    20 1   
    20    20    21 1   
    21    20    22 1   
    22     1    23 1   
    23     5    24 1   
@<TRIPOS>SUBSTRUCTURE
     1 UNL         1 TEMP              0 ****  ****    0 ROOT
