@<TRIPOS>MOLECULE
NR_CIT_mda.pdb
 24 23 0 0 0
SMALL
GASTEIGER

@<TRIPOS>ATOM
      1  N         -3.3520    0.2530   -0.3110 N.4     1  UNL1        0.2265
      2  H1        -3.3360    0.3260   -1.3550 H       1  UNL1        0.2001
      3  H2        -3.2640   -0.7510   -0.0320 H       1  UNL1        0.2001
      4  H3        -4.2740    0.6130    0.0280 H       1  UNL1        0.2001
      5  CA        -2.2690    1.0620    0.2650 C.3     1  UNL1        0.0429
      6  HA        -2.4890    2.1320    0.0530 H       1  UNL1        0.0936
      7  C         -2.2330    0.9340    1.7660 C.2     1  UNL1        0.2507
      8  O         -2.1830   -0.1560    2.3150 O.2     1  UNL1       -0.2827
      9  CB        -0.8970    0.7600   -0.3840 C.3     1  UNL1       -0.0009
     10  HB2       -0.9350    1.0820   -1.4480 H       1  UNL1        0.0325
     11  HB3       -0.1260    1.3860    0.1150 H       1  UNL1        0.0325
     12  CG        -0.4750   -0.7220   -0.3360 C.3     1  UNL1       -0.0318
     13  HG2       -1.1960   -1.3280   -0.9250 H       1  UNL1        0.0282
     14  HG3       -0.4770   -1.1010    0.7070 H       1  UNL1        0.0282
     15  CD         0.9190   -0.9350   -0.9410 C.3     1  UNL1        0.0132
     16  HD2        1.0890   -2.0260   -1.0690 H       1  UNL1        0.0462
     17  HD3        0.9710   -0.4580   -1.9430 H       1  UNL1        0.0462
     18  NE         1.9700   -0.3920   -0.0790 N.am    1  UNL1       -0.2996
     19  HE         1.7270    0.0260    0.8480 H       1  UNL1        0.1502
     20  CZ         3.3490   -0.4380   -0.4640 C.2     1  UNL1        0.2971
     21  O2         3.6870   -0.9470   -1.5670 O.2     1  UNL1       -0.2531
     22  NH1        4.3510    0.0950    0.4020 N.am    1  UNL1       -0.3134
     23 HH11        5.3570    0.0640    0.1260 H       1  UNL1        0.1465
     24 HH12        4.0890    0.5210    1.3180 H       1  UNL1        0.1465
@<TRIPOS>UNITY_ATOM_ATTR
1 1
charge 1
@<TRIPOS>BOND
     1     1     2    1
     2     1     3    1
     3     1     4    1
     4     1     5    1
     5     5     6    1
     6     5     7    1
     7     5     9    1
     8     7     8    2
     9     9    10    1
    10     9    11    1
    11     9    12    1
    12    12    13    1
    13    12    14    1
    14    12    15    1
    15    15    16    1
    16    15    17    1
    17    15    18    1
    18    18    19    1
    19    18    20   am
    20    20    21    2
    21    20    22   am
    22    22    23    1
    23    22    24    1
