@<TRIPOS>MOLECULE
*****
 25 24 0 0 0
SMALL
GASTEIGER

@<TRIPOS>ATOM
      1 N           0.9372   -0.0227    0.0783 N.4     1  UNL1        0.2259
      2 H1          0.5307   -0.2877   -0.8297 H       1  UNL1        0.2001
      3 H2          0.5873   -0.6964    0.7738 H       1  UNL1        0.2001
      4 H3          0.5543    0.9018    0.3289 H       1  UNL1        0.2001
      5 CA          2.4409    0.0147    0.0366 C.3     1  UNL1        0.0320
      6 HA          2.7642   -0.9888   -0.2596 H       1  UNL1        0.0929
      7 C           2.9074    1.0210   -1.0136 C.2     1  UNL1        0.1675
      8 O           3.4579    2.0825   -0.7493 O.2     1  UNL1       -0.2951
      9 C           2.9518    0.3554    1.4429 C.3     1  UNL1       -0.0016
     10 H           2.5848    1.3460    1.7435 H       1  UNL1        0.0325
     11 H           2.5471   -0.3617    2.1703 H       1  UNL1        0.0325
     12 C           4.4872    0.3255    1.5066 C.3     1  UNL1       -0.0318
     13 H           4.8442   -0.6747    1.2353 H       1  UNL1        0.0282
     14 H           4.9192    1.0128    0.7731 H       1  UNL1        0.0282
     15 C           5.0169    0.7233    2.8762 C.3     1  UNL1        0.0132
     16 H           4.6680    1.7289    3.1415 H       1  UNL1        0.0462
     17 H           4.6518    0.0306    3.6421 H       1  UNL1        0.0462
     18 N           6.4637    0.7185    2.9211 N.am    1  UNL1       -0.2996
     19 H           7.0134    0.5643    2.0886 H       1  UNL1        0.1502
     20 C           7.1083    1.0702    4.0678 C.2     1  UNL1        0.2971
     21 O           6.5385    1.3685    5.1112 O.2     1  UNL1       -0.2531
     22 N           8.4549    1.0469    3.9812 N.am    1  UNL1       -0.3134
     23 H           8.9829    0.8320    3.1514 H       1  UNL1        0.1465
     24 H           8.9659    1.2950    4.8195 H       1  UNL1        0.1465
     25 H           2.6646    0.7646   -2.0572 H       1  UNL1        0.1086
@<TRIPOS>UNITY_ATOM_ATTR
1 1
charge 1
@<TRIPOS>BOND
     1     1     2    1
     2     1     3    1
     3     1     4    1
     4     1     5    1
     5     5     6    1
     6     5     7    1
     7     7     8    2
     8     5     9    1
     9     9    10    1
    10     9    11    1
    11     9    12    1
    12    12    13    1
    13    12    14    1
    14    12    15    1
    15    15    16    1
    16    15    17    1
    17    15    18    1
    18    18    19    1
    19    18    20   am
    20    20    21    2
    21    20    22   am
    22    22    23    1
    23    22    24    1
    24     7    25    1
