@<TRIPOS>MOLECULE
*****
 39 38 0 0 0
SMALL
GASTEIGER

@<TRIPOS>ATOM
      1 H           1.0780    0.0847   -0.0687 H       2  UNK2        0.1465
      2 N           2.0890    0.0275   -0.0908 N.am    2  UNK2       -0.3134
      3 H           2.5771   -0.0857    0.7812 H       2  UNK2        0.1465
      4 C           2.6587    0.3800   -1.2624 C.2     2  UNK2        0.2971
      5 O           1.9702    0.6423   -2.2429 O.2     2  UNK2       -0.2531
      6 N           4.0167    0.3620   -1.2644 N.am    2  UNK2       -0.2996
      7 H           4.5067    0.2665   -0.3877 H       2  UNK2        0.1502
      8 C           4.7381    0.7501   -2.4705 C.3     2  UNK2        0.0131
      9 H           4.4418    0.0487   -3.2580 H       2  UNK2        0.0462
     10 H           4.4382    1.7590   -2.7663 H       2  UNK2        0.0462
     11 C           6.2294    0.6537   -2.2486 C.3     2  UNK2       -0.0352
     12 H           6.5232    1.3048   -1.4165 H       2  UNK2        0.0281
     13 H           6.3808   -0.3897   -1.9681 H       2  UNK2        0.0281
     14 C           7.1043    0.9564   -3.4614 C.3     2  UNK2       -0.0246
     15 H           6.8358    0.2628   -4.2692 H       2  UNK2        0.0288
     16 H           6.8795    1.9671   -3.8274 H       2  UNK2        0.0288
     17 C           8.6326    0.8418   -3.1804 C.3     2  UNK2        0.0996
     18 H           8.9257    1.5762   -2.4200 H       2  UNK2        0.0594
     19 N           8.9891   -0.5090   -2.6741 N.am    2  UNK2       -0.2996
     20 H           9.6182   -1.0354   -3.2751 H       2  UNK2        0.1496
     21 C           8.6643   -0.9564   -1.4161 C.2     1  GLY1        0.2587
     22 O           8.1519   -0.2768   -0.5219 O.2     1  GLY1       -0.2699
     23 CA          8.8643   -2.4373   -1.1122 C.3     1  GLY1        0.0425
     24 HA1         8.5014   -3.0884   -1.9103 H       1  GLY1        0.0911
     25 HA2         9.9116   -2.6114   -0.8698 H       1  GLY1        0.0911
     26 N           8.0677   -2.7876    0.1238 N.4     1  GLY1        0.2251
     27 H1          8.2704   -2.0697    0.8387 H       1  GLY1        0.1999
     28 H2          7.0590   -2.6961   -0.0558 H       1  GLY1        0.1999
     29 H3          8.2708   -3.7178    0.5008 H       1  GLY1        0.1999
     30 C           9.3880    1.1820   -4.5056 C.2     2  UNK2        0.2337
     31 O           8.7811    1.4881   -5.5318 O.2     2  UNK2       -0.2738
     32 N          10.7559    1.1372   -4.4628 N.am    3  GLY3       -0.3085
     33 H          11.3134    1.0353   -3.6171 H       3  GLY3        0.1491
     34 CA         11.5929    1.4968   -5.6307 C.3     3  GLY3        0.0512
     35 HA1        11.3429    0.8046   -6.4417 H       3  GLY3        0.0523
     36 HA2        11.3273    2.5111   -5.9523 H       3  GLY3        0.0523
     37 C          13.1136    1.4258   -5.3468 C.2     3  GLY3        0.0588
     38 O          13.3917    1.0947   -4.1504 O.co2   3  GLY3       -0.5482
     39 OXT        13.8687    1.6806   -6.3226 O.co2   3  GLY3       -0.5482
@<TRIPOS>UNITY_ATOM_ATTR
26 1
charge 1
38 1
charge -1
@<TRIPOS>BOND
     1     1     2    1
     2     2     3    1
     3     2     4   am
     4     4     5    2
     5     4     6   am
     6     6     7    1
     7     6     8    1
     8     8     9    1
     9     8    10    1
    10     8    11    1
    11    11    12    1
    12    11    13    1
    13    11    14    1
    14    14    15    1
    15    14    16    1
    16    14    17    1
    17    17    18    1
    18    17    19    1
    19    19    20    1
    20    19    21   am
    21    21    22    2
    22    21    23    1
    23    23    24    1
    24    23    25    1
    25    23    26    1
    26    26    27    1
    27    26    28    1
    28    26    29    1
    29    17    30    1
    30    30    31    2
    31    30    32   am
    32    32    33    1
    33    32    34    1
    34    34    35    1
    35    34    36    1
    36    34    37    1
    37    37    38   ar
    38    37    39   ar
