@<TRIPOS>MOLECULE
NR_CIT_pdb.pdb
   24    23     1     0     0
SMALL
gas


@<TRIPOS>ATOM
      1 N            3.9040    -4.4140    -0.2920 N3         1 UNK       0.244681
      2 CA           5.3530    -4.4140    -0.2920 CT         1 UNK       0.067431
      3 C            5.8760    -2.9850    -0.2920 CZ         1 UNK       0.147554
      4 O            6.7680    -2.6490     0.4830 O          1 UNK      -0.232569
      5 CB           5.9040    -5.1150    -1.5240 CT         1 UNK       0.004964
      6 CG           5.5920    -6.6050    -1.4400 CT         1 UNK      -0.031134
      7 CD           6.1280    -7.3080    -2.6830 CT         1 UNK       0.012744
      8 NE           5.8210    -8.7550    -2.6470 N          1 UNK      -0.299518
      9 CZ           6.1160    -9.5830    -3.6450 C          1 UNK       0.295229
     10 O1           6.6730    -9.1910    -4.6800 O          1 UNK      -0.254612
     11 NH2          5.7670   -10.9800    -3.4960 N          1 UNK      -0.312994
     12 HA           5.7110    -4.9260     0.6010 HP         1 UNK       0.102651
     13 HB2          5.4420    -4.6960    -2.4180 HC         1 UNK       0.033652
     14 HB3          6.9840    -4.9710    -1.5720 HC         1 UNK       0.033652
     15 HG2          6.0650    -7.0250    -0.5520 HC         1 UNK       0.028525
     16 HG3          4.5130    -6.7470    -1.3790 HC         1 UNK       0.028525
     17 HD2          5.6670    -6.8680    -3.5670 H1         1 UNK       0.046739
     18 HD3          7.2080    -7.1710    -2.7340 H1         1 UNK       0.046739
     19 HE           5.3670    -9.1320    -1.8270 H          1 UNK       0.150991
     20 H1           3.5670    -3.9440     0.5360 H          1 UNK       0.197481
     21 H2           3.5670    -3.9320    -1.1130 H          1 UNK       0.197481
     22 H3           3.5670    -5.3660    -0.2990 H          1 UNK       0.197481
     23 HH21         6.0470   -11.4880    -4.3230 H          1 UNK       0.147155
     24 HH22         6.2420   -11.3610    -2.6900 H          1 UNK       0.147155
@<TRIPOS>BOND
     1     2     3 1   
     2     3     4 2   
     3    10     9 2   
     4    23    11 1   
     5     9    11 1   
     6     9     8 1   
     7    17     7 1   
     8    11    24 1   
     9    18     7 1   
    10     7     8 1   
    11     7     6 1   
    12     8    19 1   
    13    13     5 1   
    14    14     5 1   
    15     5     6 1   
    16     5     2 1   
    17     6    16 1   
    18     6    15 1   
    19    21     1 1   
    20    22     1 1   
    21     1     2 1   
    22     1    20 1   
    23     2    12 1   
@<TRIPOS>SUBSTRUCTURE
     1 UNK         1 TEMP              0 ****  ****    0 ROOT
