@<TRIPOS>MOLECULE
*****
   24    23     1     0     0
SMALL
gas


@<TRIPOS>ATOM
      1 N            0.9900     0.0780    -0.0490 NT         1 UNL      -0.322947
      2 H1           0.7440     1.0240    -0.3150 H          1 UNL       0.119022
      3 CA           0.5230    -0.8790    -1.1010 CT         1 UNL       0.044285
      4 HA           0.9230    -0.5250    -2.0620 H1         1 UNL       0.052654
      5 C            1.1660    -2.2990    -0.8230 C          1 UNL       0.058167
      6 O            0.3710    -3.2520    -0.5840 O2         1 UNL      -0.548453
      7 OXT          2.4320    -2.3150    -0.9080 O2         1 UNL      -0.548453
      8 C1          -1.0040    -0.8580    -1.1580 CT         1 UNL      -0.031087
      9 H           -1.4130    -1.1920    -0.1960 HC         1 UNL       0.028695
     10 H3          -1.3510     0.1750    -1.3050 HC         1 UNL       0.028695
     11 C2          -1.5560    -1.7280    -2.2980 CT         1 UNL      -0.035678
     12 H4          -1.1770    -1.3610    -3.2590 HC         1 UNL       0.028325
     13 H5          -1.2100    -2.7610    -2.2120 HC         1 UNL       0.028325
     14 C3          -3.0780    -1.7520    -2.3000 CT         1 UNL       0.012558
     15 H6          -3.4570    -2.1310    -1.3440 H1         1 UNL       0.046729
     16 H7          -3.4750    -0.7410    -2.4420 H1         1 UNL       0.046729
     17 N1          -3.6140    -2.5840    -3.3660 N          1 UNL      -0.299523
     18 H8          -2.9770    -3.1800    -3.8740 H          1 UNL       0.150980
     19 C4          -4.9550    -2.7610    -3.4990 C          1 UNL       0.295254
     20 O1          -5.8140    -2.2110    -2.8160 O          1 UNL      -0.254591
     21 N2          -5.3110    -3.5870    -4.5080 N          1 UNL      -0.312999
     22 H9          -4.6570    -4.1100    -5.0650 H          1 UNL       0.147146
     23 H10         -6.3020    -3.7400    -4.6310 H          1 UNL       0.147146
     24 H2           2.0130     0.0020    -0.0590 H          1 UNL       0.119022
@<TRIPOS>BOND
     1     1     2 1   
     2     1     3 1   
     3     3     4 1   
     4     3     5 1   
     5     5     6 1   
     6     5     7 1   
     7     3     8 1   
     8     8     9 1   
     9     8    10 1   
    10     8    11 1   
    11    11    12 1   
    12    11    13 1   
    13    11    14 1   
    14    14    15 1   
    15    14    16 1   
    16    14    17 1   
    17    17    18 1   
    18    17    19 1   
    19    19    20 2   
    20    19    21 1   
    21    21    22 1   
    22    21    23 1   
    23     1    24 1   
@<TRIPOS>SUBSTRUCTURE
     1 UNL         1 TEMP              0 ****  ****    0 ROOT
