@<TRIPOS>MOLECULE
*****
 24 23 0 0 0
SMALL
GASTEIGER

@<TRIPOS>ATOM
      1 N           0.9903    0.0782   -0.0486 N.3     1  UNL1       -0.3226
      2 H1          0.7442    1.0236   -0.3153 H       1  UNL1        0.1188
      3 CA          0.5230   -0.8788   -1.1014 C.3     1  UNL1        0.0449
      4 HA          0.9227   -0.5248   -2.0619 H       1  UNL1        0.0520
      5 C           1.1657   -2.2989   -0.8231 C.2     1  UNL1        0.0584
      6 O           0.3713   -3.2518   -0.5836 O.co2   1  UNL1       -0.5482
      7 OXT         2.4324   -2.3148   -0.9082 O.co2   1  UNL1       -0.5482
      8 C          -1.0045   -0.8575   -1.1581 C.3     1  UNL1       -0.0311
      9 H          -1.4134   -1.1918   -0.1962 H       1  UNL1        0.0284
     10 H          -1.3511    0.1750   -1.3053 H       1  UNL1        0.0284
     11 C          -1.5565   -1.7277   -2.2982 C.3     1  UNL1       -0.0356
     12 H          -1.1768   -1.3614   -3.2592 H       1  UNL1        0.0281
     13 H          -1.2103   -2.7610   -2.2118 H       1  UNL1        0.0281
     14 C          -3.0777   -1.7519   -2.3004 C.3     1  UNL1        0.0131
     15 H          -3.4566   -2.1309   -1.3436 H       1  UNL1        0.0462
     16 H          -3.4749   -0.7414   -2.4418 H       1  UNL1        0.0462
     17 N          -3.6143   -2.5840   -3.3659 N.am    1  UNL1       -0.2996
     18 H          -2.9771   -3.1796   -3.8736 H       1  UNL1        0.1502
     19 C          -4.9551   -2.7610   -3.4986 C.2     1  UNL1        0.2971
     20 O          -5.8136   -2.2107   -2.8164 O.2     1  UNL1       -0.2531
     21 N          -5.3114   -3.5874   -4.5079 N.am    1  UNL1       -0.3134
     22 H          -4.6568   -4.1099   -5.0650 H       1  UNL1        0.1465
     23 H          -6.3021   -3.7402   -4.6314 H       1  UNL1        0.1465
     24 H2          2.0131    0.0015   -0.0593 H       1  UNL1        0.1188
@<TRIPOS>UNITY_ATOM_ATTR
7 1
charge -1
@<TRIPOS>BOND
     1     1     2    1
     2     1     3    1
     3     3     4    1
     4     3     5    1
     5     5     6   ar
     6     5     7   ar
     7     3     8    1
     8     8     9    1
     9     8    10    1
    10     8    11    1
    11    11    12    1
    12    11    13    1
    13    11    14    1
    14    14    15    1
    15    14    16    1
    16    14    17    1
    17    17    18    1
    18    17    19   am
    19    19    20    2
    20    19    21   am
    21    21    22    1
    22    21    23    1
    23     1    24    1
